@<TRIPOS>MOLECULE
shelx
    51    54     1     0     0
SMALL
NO_CHARGES
****
Generated from the CSD

@<TRIPOS>ATOM
     1 C1       6.9635   8.3141   1.6738   C.2       1 RES1   0.0000
     2 C2       6.1029   8.8667   2.6093   C.2       1 RES1   0.0000
     3 H2       5.6158   8.3211   3.2152   H         1 RES1   0.0000
     4 C3       5.9803  10.2607   2.6248   C.2       1 RES1   0.0000
     5 C4       6.7014  11.0292   1.6953   C.2       1 RES1   0.0000
     6 H4       6.6021  11.9743   1.6897   H         1 RES1   0.0000
     7 C5       7.5541  10.4245   0.7879   C.2       1 RES1   0.0000
     8 H5       8.0406  10.9598   0.1727   H         1 RES1   0.0000
     9 C6       7.7067   9.0437   0.7653   C.2       1 RES1   0.0000
    10 H6       8.2960   8.6197   0.1525   H         1 RES1   0.0000
    11 C7       3.7523  10.8126   5.2864   C.2       1 RES1   0.0000
    12 H7       3.8599  11.7557   5.3318   H         1 RES1   0.0000
    13 C8       2.8623  10.1623   6.2461   C.2       1 RES1   0.0000
    14 C9       2.2918  11.0060   7.2089   C.2       1 RES1   0.0000
    15 H9       2.5120  11.9297   7.2016   H         1 RES1   0.0000
    16 C10      1.4128  10.5281   8.1741   C.2       1 RES1   0.0000
    17 H10      1.0410  11.1153   8.8224   H         1 RES1   0.0000
    18 C11      1.0879   9.1826   8.1745   C.2       1 RES1   0.0000
    19 H11      0.4828   8.8414   8.8224   H         1 RES1   0.0000
    20 C12      1.6438   8.3292   7.2309   C.2       1 RES1   0.0000
    21 H12      1.4132   7.4081   7.2535   H         1 RES1   0.0000
    22 C13      2.5299   8.7775   6.2505   C.3       1 RES1   0.0000
    23 C14      2.2521   8.1225   3.5148   C.3       1 RES1   0.0000
    24 C15      1.0854   8.8871   3.5962   C.2       1 RES1   0.0000
    25 H15      0.7645   9.1647   4.4462   H         1 RES1   0.0000
    26 C16      0.3901   9.2458   2.4488   C.2       1 RES1   0.0000
    27 H16     -0.3965   9.7743   2.5171   H         1 RES1   0.0000
    28 C17      0.8425   8.8354   1.2063   C.2       1 RES1   0.0000
    29 H17      0.3639   9.0770   0.4227   H         1 RES1   0.0000
    30 C18      1.9973   8.0706   1.1082   C.2       1 RES1   0.0000
    31 H18      2.3058   7.7853   0.2564   H         1 RES1   0.0000
    32 C19      2.7027   7.7213   2.2545   C.2       1 RES1   0.0000
    33 H19      3.4977   7.2049   2.1802   H         1 RES1   0.0000
    34 C20      2.3298   6.0407   5.4349   C.3       1 RES1   0.0000
    35 C21      2.8497   5.2971   6.5028   C.2       1 RES1   0.0000
    36 H21      3.6096   5.6238   6.9696   H         1 RES1   0.0000
    37 C22      2.2770   4.0943   6.8920   C.2       1 RES1   0.0000
    38 H22      2.6313   3.6163   7.6328   H         1 RES1   0.0000
    39 C23      1.1842   3.5895   6.1957   C.2       1 RES1   0.0000
    40 H23      0.7948   2.7619   6.4516   H         1 RES1   0.0000
    41 C24      0.6670   4.3054   5.1229   C.2       1 RES1   0.0000
    42 H24     -0.0754   3.9612   4.6400   H         1 RES1   0.0000
    43 C25      1.2281   5.5235   4.7514   C.2       1 RES1   0.0000
    44 H25      0.8571   6.0087   4.0235   H         1 RES1   0.0000
    45 N1       7.0933   6.8524   1.6527   N.3       1 RES1   0.0000
    46 N2       5.1858  10.8950   3.5540   N.3       1 RES1   0.0000
    47 N3       4.3949  10.1640   4.3857   N.2       1 RES1   0.0000
    48 O1       7.9593   6.3489   0.9436   O.2       1 RES1   0.0000
    49 O2       6.3125   6.1884   2.3278   O.2       1 RES1   0.0000
    50 P1       3.2167   7.6013   4.9939   P.3       1 RES1   0.0000
    51 H2N      5.1796  11.7680   3.6209   H         1 RES1   0.0000
@<TRIPOS>BOND
     1     1     2   un
     2     1     9   un
     3     1    45    1
     4     2     3    1
     5     2     4   un
     6     4     5   un
     7     4    46    1
     8     5     6    1
     9     5     7   un
    10     7     8    1
    11     7     9   un
    12     9    10    1
    13    11    12    1
    14    11    13   un
    15    11    47   un
    16    13    14   un
    17    13    22    1
    18    14    15    1
    19    14    16   un
    20    16    17    1
    21    16    18   un
    22    18    19    1
    23    18    20   un
    24    20    21    1
    25    20    22    1
    26    22    50    1
    27    23    24    1
    28    23    32    1
    29    23    50    1
    30    24    25    1
    31    24    26   un
    32    26    27    1
    33    26    28   un
    34    28    29    1
    35    28    30   un
    36    30    31    1
    37    30    32   un
    38    32    33    1
    39    34    35    1
    40    34    43    1
    41    34    50    1
    42    35    36    1
    43    35    37   un
    44    37    38    1
    45    37    39   un
    46    39    40    1
    47    39    41   un
    48    41    42    1
    49    41    43   un
    50    43    44    1
    51    45    48    1
    52    45    49    1
    53    46    47    1
    54    46    51    1
@<TRIPOS>SUBSTRUCTURE
     1 RES1        1 GROUP             0 ****  ****    0  
@<TRIPOS>CRYSIN
   12.7138   15.3951   10.6106   90.0000   93.2350   90.0000    14     1
