shelx
  --CCDC--060326    3D                              

 51 54  0  0  0  0  0  0  0  0999 V2000
    6.9635    8.3141    1.6738 C      0
    6.1029    8.8667    2.6093 C      0
    5.6158    8.3211    3.2152 H      0
    5.9803   10.2607    2.6248 C      0
    6.7014   11.0292    1.6953 C      0
    6.6021   11.9743    1.6897 H      0
    7.5541   10.4245    0.7879 C      0
    8.0406   10.9598    0.1727 H      0
    7.7067    9.0437    0.7653 C      0
    8.2960    8.6197    0.1525 H      0
    3.7523   10.8126    5.2864 C      0
    3.8599   11.7557    5.3318 H      0
    2.8623   10.1623    6.2461 C      0
    2.2918   11.0060    7.2089 C      0
    2.5120   11.9297    7.2016 H      0
    1.4128   10.5281    8.1741 C      0
    1.0410   11.1153    8.8224 H      0
    1.0879    9.1826    8.1745 C      0
    0.4828    8.8414    8.8224 H      0
    1.6438    8.3292    7.2309 C      0
    1.4132    7.4081    7.2535 H      0
    2.5299    8.7775    6.2505 C      0
    2.2521    8.1225    3.5148 C      0
    1.0854    8.8871    3.5962 C      0
    0.7645    9.1647    4.4462 H      0
    0.3901    9.2458    2.4488 C      0
   -0.3965    9.7743    2.5171 H      0
    0.8425    8.8354    1.2063 C      0
    0.3639    9.0770    0.4227 H      0
    1.9973    8.0706    1.1082 C      0
    2.3058    7.7853    0.2564 H      0
    2.7027    7.7213    2.2545 C      0
    3.4977    7.2049    2.1802 H      0
    2.3298    6.0407    5.4349 C      0
    2.8497    5.2971    6.5028 C      0
    3.6096    5.6238    6.9696 H      0
    2.2770    4.0943    6.8920 C      0
    2.6313    3.6163    7.6328 H      0
    1.1842    3.5895    6.1957 C      0
    0.7948    2.7619    6.4516 H      0
    0.6670    4.3054    5.1229 C      0
   -0.0754    3.9612    4.6400 H      0
    1.2281    5.5235    4.7514 C      0
    0.8571    6.0087    4.0235 H      0
    7.0933    6.8524    1.6527 N      0
    5.1858   10.8950    3.5540 N      0
    4.3949   10.1640    4.3857 N      0
    7.9593    6.3489    0.9436 O      0
    6.3125    6.1884    2.3278 O      0
    3.2167    7.6013    4.9939 P      0
    5.1796   11.7680    3.6209 H      0
  1  2  1
  1  9  1
  1 45  1
  2  3  1
  2  4  1
  4  5  1
  4 46  1
  5  6  1
  5  7  1
  7  8  1
  7  9  1
  9 10  1
 11 12  1
 11 13  1
 11 47  1
 13 14  1
 13 22  1
 14 15  1
 14 16  1
 16 17  1
 16 18  1
 18 19  1
 18 20  1
 20 21  1
 20 22  1
 22 50  1
 23 24  1
 23 32  1
 23 50  1
 24 25  1
 24 26  1
 26 27  1
 26 28  1
 28 29  1
 28 30  1
 30 31  1
 30 32  1
 32 33  1
 34 35  1
 34 43  1
 34 50  1
 35 36  1
 35 37  1
 37 38  1
 37 39  1
 39 40  1
 39 41  1
 41 42  1
 41 43  1
 43 44  1
 45 48  1
 45 49  1
 46 47  1
 46 51  1
M  END
$$$$
